Program Version,EnergyPlus, Version 9.0.1-bb7ca4f0da, YMD=2022.02.04 19:10,
   ** Severe  ** <root>[Material][XPS Extruded Polystyrene  - CO2 Blowing_.0795][thickness] - "0" - Expected number greater than 0.000000
   **  Fatal  ** Errors occurred on processing input file. Preceding condition(s) cause termination.
   ...Summary of Errors that led to program termination:
   ..... Reference severe error count=1
   ..... Last severe error=<root>[Material][XPS Extruded Polystyrene  - CO2 Blowing_.0795][thickness] - "0" - Expected number greater than 0.000000
   ************* Warning:  Node connection errors not checked - most system input has not been read (see previous warning).
   ************* Fatal error -- final processing.  Program exited before simulations began.  See previous error messages.
   ************* EnergyPlus Warmup Error Summary. During Warmup: 0 Warning; 0 Severe Errors.
   ************* EnergyPlus Sizing Error Summary. During Sizing: 0 Warning; 0 Severe Errors.
   ************* EnergyPlus Terminated--Fatal Error Detected. 0 Warning; 1 Severe Errors; Elapsed Time=00hr 00min  0.16sec
